20
comp_09
B 0.000000 0.000000 -0.027904
C 0.000000 0.000000 1.451127
C 0.000000 0.000000 -2.824453
C 0.000000 1.296500 -0.752760
C 0.000000 -1.296500 -0.752760
C 0.000000 1.263571 2.068891
C 0.000000 -1.263571 2.068891
C 0.000000 1.236527 -2.159506
C 0.000000 -1.236527 -2.159506
C 0.000000 2.442038 0.060811
C 0.000000 -2.442038 0.060811
N 0.000000 2.435329 1.409459
N 0.000000 -2.435329 1.409459
H 0.000000 0.000000 -3.902496
H 0.000000 1.363955 3.150354
H 0.000000 -1.363955 3.150354
H 0.000000 3.438306 -0.372508
H 0.000000 -3.438306 -0.372508
H 0.000000 2.137274 -2.763882
H 0.000000 -2.137274 -2.763882
