19
comp_08
C 0.000000 -1.197806 0.691554
C 0.000000 -0.000000 -1.383107
C 0.000000 1.197806 0.691554
C 0.000000 -2.385090 -0.064459
C 0.000000 1.248368 -2.033319
C 0.000000 1.136722 2.097778
C 0.000000 -1.136722 2.097778
C 0.000000 -1.248368 -2.033319
C 0.000000 2.385090 -0.064459
N 0.000000 -0.000000 0.000000
N 0.000000 -2.409510 -1.391131
N 0.000000 2.409510 -1.391131
N 0.000000 0.000000 2.782262
H 0.000000 -3.324433 0.463779
H 0.000000 1.260572 -3.110933
H 0.000000 2.063861 2.647154
H 0.000000 -2.063861 2.647154
H 0.000000 -1.260572 -3.110933
H 0.000000 3.324433 0.463779
