22
bora_c3h
B 0.000000 0.000000 -0.000000
C -1.291391 -0.771780 -0.000000
C 1.314076 -0.732488 -0.000000
C -0.022685 1.504267 0.000000
C -2.455556 -0.030862 0.000000
C 1.254506 -2.111143 -0.000000
C 1.201051 2.142005 0.000000
C -2.453542 1.406747 0.000000
C 0.008492 -2.828203 -0.000000
C 2.445050 1.421456 0.000000
C -1.303365 2.154171 0.000000
C -1.213884 -2.205832 -0.000000
C 2.517249 0.051662 -0.000000
H -3.425053 -0.520038 0.000000
H 2.162892 -2.706164 -0.000000
H 1.262160 3.226201 0.000000
H -3.407872 1.908793 0.000000
H 0.050873 -3.905700 -0.000000
H 3.356999 1.996907 0.000000
H -1.377634 3.235236 0.000000
H -2.112979 -2.810684 -0.000000
H 3.490613 -0.424552 -0.000000
