18
comp_04
C 0.000000 -0.000000 1.391886
C 0.000000 0.000000 -2.765994
C 0.000000 -1.217924 -0.692737
C 0.000000 1.217924 -0.692737
C 0.000000 -1.203139 -2.082968
C 0.000000 1.203139 -2.082968
C 0.000000 -2.265677 1.308862
C 0.000000 2.265677 1.308862
N 0.000000 -0.000000 -0.019406
N 0.000000 -2.378604 -0.003832
N 0.000000 2.378604 -0.003832
N 0.000000 -1.154251 2.049215
N 0.000000 1.154251 2.049215
H 0.000000 -2.155176 -2.580416
H 0.000000 2.155176 -2.580416
H 0.000000 -3.192175 1.863931
H 0.000000 3.192175 1.863931
H 0.000000 0.000000 -3.843758
