16
mol_01
C 0.000000 -1.210268 0.698749
C 0.000000 -2.254091 -1.301400
C 0.000000 -0.000000 -1.397498
C 0.000000 2.254091 -1.301400
C 0.000000 1.210268 0.698749
C 0.000000 -0.000000 2.602800
N 0.000000 0.000000 -0.000000
N 0.000000 -2.356811 0.023533
N 0.000000 1.158025 -2.052825
N 0.000000 1.198786 2.029292
N 0.000000 -1.198786 2.029292
N 0.000000 -1.158025 -2.052825
N 0.000000 2.356811 0.023533
H 0.000000 3.188890 -1.841106
H 0.000000 0.000000 3.682213
H 0.000000 -3.188890 -1.841106
