22
mol_02
C 0.000000 -1.215096 0.701536
C 0.000000 -2.420355 -1.397393
C 0.000000 -0.000000 -1.403072
C 0.000000 2.420355 -1.397393
C 0.000000 1.215096 0.701536
C 0.000000 0.000000 2.794786
C 0.000000 -2.420109 -0.018527
C 0.000000 1.226100 -2.086612
C 0.000000 1.194009 2.105140
C 0.000000 -1.194009 2.105140
C 0.000000 -1.226100 -2.086612
C 0.000000 2.420109 -0.018527
N 0.000000 -0.000000 0.000000
H 0.000000 3.354081 -1.936480
H 0.000000 0.000000 3.872959
H 0.000000 -3.354081 -1.936480
H 0.000000 -3.333448 0.550068
H 0.000000 1.190352 -3.161885
H 0.000000 2.143097 2.611817
H 0.000000 -2.143097 2.611817
H 0.000000 -1.190352 -3.161885
H 0.000000 3.333448 0.550068
