20
comp_07
C 0.000000 -0.000000 1.361514
C 0.000000 0.000000 -2.796953
C 0.000000 1.210862 -0.709026
C 0.000000 -1.210862 -0.709026
C 0.000000 1.240024 2.022382
C 0.000000 -1.240024 2.022382
C 0.000000 1.199824 -2.110709
C 0.000000 -1.199824 -2.110709
C 0.000000 2.389146 0.067385
C 0.000000 -2.389146 0.067385
N 0.000000 2.407575 1.391887
N 0.000000 -0.000000 -0.027417
N 0.000000 -2.407575 1.391887
H 0.000000 0.000000 -3.874862
H 0.000000 1.239975 3.100095
H 0.000000 -1.239975 3.100095
H 0.000000 3.332484 -0.454723
H 0.000000 -3.332484 -0.454723
H 0.000000 2.147596 -2.619461
H 0.000000 -2.147596 -2.619461
