21
comp_06
C 0.000000 -0.000000 1.425091
C 0.000000 -1.200457 -0.683365
C 0.000000 1.200457 -0.683365
C 0.000000 -1.130791 -2.090370
C 0.000000 1.130791 -2.090370
C 0.000000 -2.414427 0.014333
C 0.000000 2.414427 0.014333
C 0.000000 -2.422367 1.395544
C 0.000000 2.422367 1.395544
C 0.000000 -1.234142 2.097195
C 0.000000 1.234142 2.097195
N 0.000000 -0.000000 0.028159
N 0.000000 0.000000 -2.780119
H 0.000000 -2.060916 -2.635674
H 0.000000 2.060916 -2.635674
H 0.000000 -3.322034 -0.563015
H 0.000000 3.322034 -0.563015
H 0.000000 -3.359551 1.928324
H 0.000000 3.359551 1.928324
H 0.000000 -1.211103 3.172833
H 0.000000 1.211103 3.172833
